208
cytosine
 C    5.448919    3.891592    3.099630
 C    9.655082   11.229608    6.195170
 C    2.103081    3.669008    3.099630
 C   13.000918   11.452191    6.195170
 C    5.448919    3.669008    7.747030
 C    2.103081    3.891592    7.747030
 C    5.353160    5.952460    4.176525
 C    9.750840    9.168739    5.118275
 C    2.198840    1.608140    4.176525
 C   12.905160   13.513060    5.118275
 C    5.353160    1.608140    8.823925
 C    2.198840    5.952460    8.823925
 C    5.248036    6.635938    2.931952
 C    9.855964    8.485261    6.362848
 C    2.303964    0.924662    2.931952
 C   12.800036   14.196538    6.362848
 C    5.248036    0.924662    7.579351
 C    2.303964    6.635938    7.579351
 H    5.185204    7.563623    2.892542
 H    9.918797    7.557576    6.402258
 H    2.366796    7.563623    7.539942
 C    5.244109    5.889707    1.820944
 C    9.859891    9.231492    7.473856
 C    2.307891    1.670893    1.820944
 C   12.796109   13.450308    7.473856
 C    5.244109    1.670893    6.468344
 C    2.307891    5.889707    6.468344
 H    5.170099    6.301004    0.989896
 H    9.933901    8.820195    8.304903
 H    2.381901    1.259596    0.989896
 H   12.722099   13.861604    8.304903
 H    5.170099    1.259596    5.637296
 H    2.381901    6.301004    5.637296
 N    5.347118    4.543769    1.895396
 N    9.756882   10.577430    7.399404
 N    2.204882    3.016831    1.895396
 N   12.899118   12.104369    7.399404
 N    5.347118    3.016831    6.542796
 N    2.204882    4.543769    6.542796
 H    5.333222    4.017703    1.143260
 H    9.770778   11.103498    8.151539
 H    2.218778    3.542897    1.143260
 H   12.885222   11.578302    8.151539
 H    5.333222    3.542897    5.790660
 H    2.218778    4.017703    5.790660
 N    5.443028    4.623610    4.237964
 N    9.660971   10.497590    5.056836
 N    2.108971    2.936990    4.237964
 N   12.995029   12.184210    5.056836
 N    5.443028    2.936990    8.885365
 N    2.108971    4.623610    8.885365
 N    5.365092    6.631856    5.324619
 N    9.738908    8.489344    3.970181
 N    2.186908    0.928744    5.324619
 N   12.917092   14.192456    3.970181
 N    9.738908   14.192456    8.617580
 N   12.917092    8.489344    8.617580
 H    5.426867    6.169449    6.060210
 H    9.677133    8.951751    3.234590
 H    2.125133    1.391150    6.060210
 H   12.978868   13.730049    3.234590
 H    9.677133   13.730049    7.881990
 H   12.978868    8.951751    7.881990
 H    5.266765    7.480458    5.270151
 H    9.837235    7.640742    4.024649
 H    2.285235    0.080142    5.270151
 H   12.818765   15.041058    4.024649
 H    9.837235   15.041058    8.672049
 H   12.818765    7.640742    8.672049
 O    5.558272    2.651049    3.115059
 O    9.545728   12.470150    6.179741
 O    1.993728    4.909551    3.115059
 O   13.110272   10.211649    6.179741
 O    5.558272    4.909551    7.762459
 O    1.993728    2.651049    7.762459
 C    3.659397    9.645360    4.704935
 C   11.444603    5.475840    4.589865
 C    3.892603   13.036440    4.704935
 C   11.211397    2.084761    4.589865
 C   11.444603    2.084761    9.237265
 C   11.211397    5.475840    9.237265
 C    1.593925    9.784323    5.770119
 C   13.510075    5.336876    3.524681
 C    5.958075   12.897476    5.770119
 C    9.145926    2.223722    3.524681
 C   13.510075    2.223722    8.172081
 C    9.145926    5.336876    8.172081
 C    0.906844    9.816833    4.520991
 C   14.197156    5.304366    4.773809
 C    6.645156   12.864965    4.520991
 C    8.458844    2.256234    4.773809
 C    0.906844   12.864965    9.168390
 C    6.645156    9.816833    9.168390
 H    7.573145   12.824289    4.476376
 H    7.530855    2.296911    4.818424
 H    7.573145    9.857510    9.123775
 C    1.664763    9.785079    3.412121
 C   13.439237    5.336120    5.882679
 C    5.887237   12.896720    3.412121
 C    9.216763    2.224479    5.882679
 C    1.664763   12.896720    8.059521
 C    5.887237    9.785079    8.059521
 H    1.256653    9.813659    2.576519
 H   13.847347    5.307541    6.718281
 H    6.295347   12.868141    2.576519
 H    8.808653    2.253058    6.718281
 H    1.256653   12.868141    7.223918
 H    6.295347    9.813659    7.223918
 N    3.007509    9.712195    3.495217
 N   12.096492    5.409004    5.799583
 N    4.544492   12.969604    3.495217
 N   10.559508    2.151595    5.799583
 N    3.007509   12.969604    8.142616
 N    4.544492    9.712195    8.142616
 H    3.513191    9.742589    2.769850
 H   11.590810    5.378611    6.524950
 H    4.038810   12.939211    2.769850
 H   11.065190    2.181989    6.524950
 H    3.513191   12.939211    7.417250
 H    4.038810    9.742589    7.417250
 N    2.920510    9.685128    5.836390
 N   12.183491    5.436071    3.458409
 N    4.631491   12.996671    5.836390
 N   10.472509    2.124530    3.458409
 N   12.183491    2.124530    8.105809
 N   10.472509    5.436071    8.105809
 N    0.915756    9.845263    6.914402
 N   14.188244    5.275938    2.380398
 N    6.636245   12.836537    6.914402
 N    8.467756    2.284662    2.380398
 N   14.188244    2.284662    7.027798
 N    8.467756    5.275938    7.027798
 H    1.383526    9.789465    7.705389
 H   13.720473    5.331735    1.589411
 H    6.168474   12.892334    7.705389
 H    8.935527    2.228865    1.589411
 H   13.720473    2.228865    6.236811
 H    8.935527    5.331735    6.236811
 H    0.064947    9.887753    6.840973
 H   15.039053    5.233447    2.453827
 H    7.487053   12.794046    6.840973
 H    7.616947    2.327153    2.453827
 H   15.039053    2.327153    7.101227
 H    7.616947    5.233447    7.101227
 O    4.898227    9.537243    4.729938
 O   10.205773    5.583956    4.564862
 O    2.653773   13.144556    4.729938
 O   12.450227    1.976644    4.564862
 O   10.205773    1.976644    9.212262
 O   12.450227    5.583956    9.212262
 N    5.365092    0.928744    9.972019
 N    2.186908    6.631856    9.972019
 H    2.366796   -0.003024    2.892542
 H   12.737203   15.124225    6.402258
 H    5.185204   -0.003024    7.539942
 C    9.750840   13.513060    9.765675
 C   12.905160    9.168739    9.765675
 N   12.096492    2.151595   10.446983
 N   10.559508    5.409004   10.446983
 C   14.197156    2.256234    9.421209
 C    8.458844    5.304366    9.421209
 H   -0.021146    9.857510    4.476376
 H   15.125146    5.263690    4.818424
 H   -0.021146   12.824289    9.123775
 C    1.593925   12.897476   10.417519
 C    5.958075    9.784323   10.417519
 C    3.659397   13.036440    9.352335
 C    3.892603    9.645360    9.352335
 N    9.660971   12.184210    9.704236
 C    9.855964   14.196538   11.010248
 C   12.800036    8.485261   11.010248
 N   12.995029   10.497590    9.704236
 C   13.439237    2.224479   10.530079
 C    9.216763    5.336120   10.530079
 H   15.125146    2.296911    9.465824
 H    7.530855    5.263690    9.465824
 N    0.915756   12.836537   11.561802
 N    2.920510   12.996671   10.483789
 N    4.631491    9.685128   10.483789
 N    6.636245    9.845263   11.561802
 O    4.898227   13.144556    9.377337
 O    2.653773    9.537243    9.377337
 C    9.655082   11.452191   10.842569
 C    9.859891   13.450308   12.121256
 H    9.918797   15.124225   11.049658
 H   12.737203    7.557576   11.049658
 C   12.796109    9.231492   12.121256
 C   13.000918   11.229608   10.842569
 H   13.847347    2.253058   11.365681
 H    8.808653    5.307541   11.365681
 O    9.545728   10.211649   10.827141
 N    9.756882   12.104369   12.046804
 H    9.933901   13.861604   12.952304
 H   12.722099    8.820195   12.952304
 N   12.899118   10.577430   12.046804
 O   13.110272   12.470150   10.827141
 H    9.770778   11.578302   12.798940
 H   12.885222   11.103498   12.798940
 H    5.426867    1.391150   10.707609
 H    2.125133    6.169449   10.707609
 H    5.266765    0.080142    9.917551
 H    2.285235    7.480458    9.917551
 H   11.590810    2.181989   11.172349
 H   11.065190    5.378611   11.172349
 H    1.383526   12.892334   12.352789
 H    6.168474    9.789465   12.352789
 H    0.064947   12.794046   11.488373
 H    7.487053    9.887753   11.488373
